* C:\Users\felipe\Desktop\DEV\Circuitos Elétricos\Lab3\Lab3-3-v2.sch

* Schematics Version 9.1 - Web Update 1
* Wed May 15 19:09:22 2024



** Analysis setup **
.tran 0ms 60ms 0 10us
.OP 


* From [PSPICE NETLIST] section of pspiceev.ini:
.lib "nom.lib"

.INC "Lab3-3-v2.net"
.INC "Lab3-3-v2.als"


.probe


.END
