* C:\Users\felipe\Desktop\DEV\Circuitos Elétricos\LAB1\Lab 1-3-1.sch

* Schematics Version 9.1 - Web Update 1
* Thu Mar 28 18:33:31 2024



** Analysis setup **
.tran 0s 100ms 0 10us
.OP 


* From [PSPICE NETLIST] section of pspiceev.ini:
.lib "nom.lib"

.INC "Lab 1-3-1.net"
.INC "Lab 1-3-1.als"


.probe


.END
