*version 9.1 330846305
u 1475
R? 29
U? 11
V? 9
X? 2
? 3
@libraries
@analysis
.TRAN 1 0 0 0
+0 0
+1 10ms
+3 1ms
@targets
@attributes
@translators
a 0 u 13 0 0 0 hln 100 PCBOARDS=PCB
a 0 u 13 0 0 0 hln 100 PSPICE=PSPICE
a 0 u 13 0 0 0 hln 100 XILINX=XILINX
@setup
unconnectedPins 0
connectViaLabel 0
connectViaLocalLabels 0
NoStim4ExtIFPortsWarnings 1
AutoGenStim4ExtIFPorts 1
@index
pageloc 1 0 16366 
@status
n 0 124:04:29:18:04:10;1717016650 e 
s 2832 124:04:29:18:04:13;1717016653 e 
c 124:04:29:18:03:58;1717016638
*page 1 0 970 720 iA
@ports
port 344 GND_EARTH 640 620 h
port 343 GND_EARTH 550 200 h
port 25 GND_EARTH 240 480 h
port 24 GND_EARTH 180 480 h
port 23 GND_EARTH 120 480 h
port 13 GND_EARTH 300 340 h
port 110 GND_EARTH 460 320 h
port 14 GND_EARTH 70 480 h
@parts
part 339 OPAMP 710 100 h
a 0 s 0:13 0 0 0 hln 100 PKGTYPE=
a 0 sp 11 0 15 35 hln 100 PART=OPAMP
a 0 a 0:13 0 0 0 hln 100 PKGREF=U9
a 0 ap 9 0 24 25 hln 100 REFDES=U9
part 325 r 740 160 h
a 0 sp 0 0 0 10 hlb 100 PART=r
a 0 s 0:13 0 0 0 hln 100 PKGTYPE=RC05
a 0 s 0:13 0 0 0 hln 100 GATE=
a 0 a 0:13 0 0 0 hln 100 PKGREF=R20
a 0 ap 9 0 15 0 hln 100 REFDES=R20
part 326 OPAMP 710 180 h
a 0 s 0:13 0 0 0 hln 100 PKGTYPE=
a 0 sp 11 0 15 35 hln 100 PART=OPAMP
a 0 a 0:13 0 0 0 hln 100 PKGREF=U3
a 0 ap 9 0 24 25 hln 100 REFDES=U3
part 324 r 740 240 h
a 0 sp 0 0 0 10 hlb 100 PART=r
a 0 s 0:13 0 0 0 hln 100 PKGTYPE=RC05
a 0 s 0:13 0 0 0 hln 100 GATE=
a 0 a 0:13 0 0 0 hln 100 PKGREF=R19
a 0 ap 9 0 15 0 hln 100 REFDES=R19
part 338 OPAMP 710 260 h
a 0 s 0:13 0 0 0 hln 100 PKGTYPE=
a 0 sp 11 0 20 35 hln 100 PART=OPAMP
a 0 a 0:13 0 0 0 hln 100 PKGREF=U8
a 0 ap 9 0 24 25 hln 100 REFDES=U8
part 323 r 740 320 h
a 0 sp 0 0 0 10 hlb 100 PART=r
a 0 s 0:13 0 0 0 hln 100 PKGTYPE=RC05
a 0 s 0:13 0 0 0 hln 100 GATE=
a 0 a 0:13 0 0 0 hln 100 PKGREF=R18
a 0 ap 9 0 15 0 hln 100 REFDES=R18
part 337 OPAMP 710 340 h
a 0 s 0:13 0 0 0 hln 100 PKGTYPE=
a 0 sp 11 0 20 35 hln 100 PART=OPAMP
a 0 a 0:13 0 0 0 hln 100 PKGREF=U7
a 0 ap 9 0 24 25 hln 100 REFDES=U7
part 322 r 740 400 h
a 0 sp 0 0 0 10 hlb 100 PART=r
a 0 s 0:13 0 0 0 hln 100 PKGTYPE=RC05
a 0 s 0:13 0 0 0 hln 100 GATE=
a 0 a 0:13 0 0 0 hln 100 PKGREF=R17
a 0 ap 9 0 15 0 hln 100 REFDES=R17
part 336 OPAMP 710 420 h
a 0 s 0:13 0 0 0 hln 100 PKGTYPE=
a 0 sp 11 0 20 35 hln 100 PART=OPAMP
a 0 a 0:13 0 0 0 hln 100 PKGREF=U6
a 0 ap 9 0 24 25 hln 100 REFDES=U6
part 321 r 740 480 h
a 0 sp 0 0 0 10 hlb 100 PART=r
a 0 s 0:13 0 0 0 hln 100 PKGTYPE=RC05
a 0 s 0:13 0 0 0 hln 100 GATE=
a 0 a 0:13 0 0 0 hln 100 PKGREF=R16
a 0 ap 9 0 15 0 hln 100 REFDES=R16
part 320 r 740 560 h
a 0 sp 0 0 0 10 hlb 100 PART=r
a 0 s 0:13 0 0 0 hln 100 PKGTYPE=RC05
a 0 s 0:13 0 0 0 hln 100 GATE=
a 0 a 0:13 0 0 0 hln 100 PKGREF=R15
a 0 ap 9 0 15 0 hln 100 REFDES=R15
part 319 r 740 650 h
a 0 sp 0 0 0 10 hlb 100 PART=r
a 0 s 0:13 0 0 0 hln 100 PKGTYPE=RC05
a 0 s 0:13 0 0 0 hln 100 GATE=
a 0 a 0:13 0 0 0 hln 100 PKGREF=R14
a 0 ap 9 0 15 0 hln 100 REFDES=R14
part 335 OPAMP 710 580 h
a 0 s 0:13 0 0 0 hln 100 PKGTYPE=
a 0 sp 11 0 20 35 hln 100 PART=OPAMP
a 0 a 0:13 0 0 0 hln 100 PKGREF=U5
a 0 ap 9 0 24 25 hln 100 REFDES=U5
part 334 OPAMP 710 500 h
a 0 s 0:13 0 0 0 hln 100 PKGTYPE=
a 0 sp 11 0 20 35 hln 100 PART=OPAMP
a 0 a 0:13 0 0 0 hln 100 PKGREF=U4
a 0 ap 9 0 24 25 hln 100 REFDES=U4
part 329 r 640 540 v
a 0 u 13 0 10 0 hln 100 VALUE=1k
a 0 sp 0 0 0 10 hlb 100 PART=r
a 0 s 0:13 0 0 0 hln 100 PKGTYPE=RC05
a 0 s 0:13 0 0 0 hln 100 GATE=
a 0 a 0:13 0 0 0 hln 100 PKGREF=R22
a 0 ap 9 0 20 0 hln 100 REFDES=R22
part 328 r 640 620 v
a 0 u 13 0 15 0 hln 100 VALUE=1k
a 0 sp 0 0 0 10 hlb 100 PART=r
a 0 s 0:13 0 0 0 hln 100 PKGTYPE=RC05
a 0 s 0:13 0 0 0 hln 100 GATE=
a 0 a 0:13 0 0 0 hln 100 PKGREF=R21
a 0 ap 9 0 25 0 hln 100 REFDES=R21
part 330 r 640 460 v
a 0 u 13 0 10 0 hln 100 VALUE=1k
a 0 sp 0 0 0 10 hlb 100 PART=r
a 0 s 0:13 0 0 0 hln 100 PKGTYPE=RC05
a 0 s 0:13 0 0 0 hln 100 GATE=
a 0 a 0:13 0 0 0 hln 100 PKGREF=R23
a 0 ap 9 0 20 0 hln 100 REFDES=R23
part 332 r 640 300 v
a 0 u 13 0 10 0 hln 100 VALUE=1k
a 0 sp 0 0 0 10 hlb 100 PART=r
a 0 s 0:13 0 0 0 hln 100 PKGTYPE=RC05
a 0 s 0:13 0 0 0 hln 100 GATE=
a 0 a 0:13 0 0 0 hln 100 PKGREF=R25
a 0 ap 9 0 20 0 hln 100 REFDES=R25
part 331 r 640 380 v
a 0 u 13 0 10 0 hln 100 VALUE=1k
a 0 sp 0 0 0 10 hlb 100 PART=r
a 0 s 0:13 0 0 0 hln 100 PKGTYPE=RC05
a 0 s 0:13 0 0 0 hln 100 GATE=
a 0 a 0:13 0 0 0 hln 100 PKGREF=R24
a 0 ap 9 0 20 0 hln 100 REFDES=R24
part 333 r 640 220 v
a 0 u 13 0 10 0 hln 100 VALUE=1k
a 0 sp 0 0 0 10 hlb 100 PART=r
a 0 s 0:13 0 0 0 hln 100 PKGTYPE=RC05
a 0 s 0:13 0 0 0 hln 100 GATE=
a 0 a 0:13 0 0 0 hln 100 PKGREF=R26
a 0 ap 9 0 20 0 hln 100 REFDES=R26
part 327 VDC 550 130 h
a 0 sp 0 0 22 37 hln 100 PART=VDC
a 1 u 13 0 -11 28 hcn 100 DC=10V
a 0 a 0:13 0 0 0 hln 100 PKGREF=V6
a 1 ap 9 0 -11 17 hcn 100 REFDES=V6
part 341 r 640 140 v
a 0 u 13 0 10 0 hln 100 VALUE=1k
a 0 sp 0 0 0 10 hlb 100 PART=r
a 0 s 0:13 0 0 0 hln 100 PKGTYPE=RC05
a 0 s 0:13 0 0 0 hln 100 GATE=
a 0 a 0:13 0 0 0 hln 100 PKGREF=R28
a 0 ap 9 0 20 0 hln 100 REFDES=R28
part 340 r 610 100 u
a 0 u 13 0 25 25 hln 100 VALUE=3k
a 0 sp 0 0 0 10 hlb 100 PART=r
a 0 s 0:13 0 0 0 hln 100 PKGTYPE=RC05
a 0 s 0:13 0 0 0 hln 100 GATE=
a 0 a 0:13 0 0 0 hln 100 PKGREF=R27
a 0 ap 9 0 25 35 hln 100 REFDES=R27
part 3 r 120 430 v
a 0 u 13 0 10 5 hln 100 VALUE=2k
a 0 sp 0 0 0 10 hlb 100 PART=r
a 0 s 0:13 0 0 0 hln 100 PKGTYPE=RC05
a 0 s 0:13 0 0 0 hln 100 GATE=
a 0 a 0:13 0 0 0 hln 100 PKGREF=R2
a 0 ap 9 0 20 5 hln 100 REFDES=R2
part 7 r 170 380 u
a 0 ap 9 0 25 35 hln 100 REFDES=R6
a 0 u 13 0 25 25 hln 100 VALUE=1k
a 0 sp 0 0 0 10 hlb 100 PART=r
a 0 s 0:13 0 0 0 hln 100 PKGTYPE=RC05
a 0 s 0:13 0 0 0 hln 100 GATE=
a 0 a 0:13 0 0 0 hln 100 PKGREF=R6
part 4 r 180 430 v
a 0 u 13 0 10 5 hln 100 VALUE=2k
a 0 sp 0 0 0 10 hlb 100 PART=r
a 0 s 0:13 0 0 0 hln 100 PKGTYPE=RC05
a 0 s 0:13 0 0 0 hln 100 GATE=
a 0 a 0:13 0 0 0 hln 100 PKGREF=R3
a 0 ap 9 0 20 5 hln 100 REFDES=R3
part 8 r 230 380 u
a 0 ap 9 0 25 35 hln 100 REFDES=R7
a 0 u 13 0 25 25 hln 100 VALUE=1k
a 0 sp 0 0 0 10 hlb 100 PART=r
a 0 s 0:13 0 0 0 hln 100 PKGTYPE=RC05
a 0 s 0:13 0 0 0 hln 100 GATE=
a 0 a 0:13 0 0 0 hln 100 PKGREF=R7
part 5 r 240 430 v
a 0 u 13 0 10 5 hln 100 VALUE=2k
a 0 sp 0 0 0 10 hlb 100 PART=r
a 0 s 0:13 0 0 0 hln 100 PKGTYPE=RC05
a 0 s 0:13 0 0 0 hln 100 GATE=
a 0 a 0:13 0 0 0 hln 100 PKGREF=R4
a 0 ap 9 0 20 5 hln 100 REFDES=R4
part 10 r 290 380 u
a 0 ap 9 0 25 35 hln 100 REFDES=R9
a 0 u 13 0 25 25 hln 100 VALUE=2k
a 0 sp 0 0 0 10 hlb 100 PART=r
a 0 s 0:13 0 0 0 hln 100 PKGTYPE=RC05
a 0 s 0:13 0 0 0 hln 100 GATE=
a 0 a 0:13 0 0 0 hln 100 PKGREF=R9
part 12 OPAMP 300 340 h
a 0 ap 9 0 19 25 hln 100 REFDES=U1
a 0 s 0:13 0 0 0 hln 100 PKGTYPE=
a 0 a 0:13 0 0 0 hln 100 PKGREF=U1
a 0 sp 11 0 15 40 hln 100 PART=OPAMP
part 11 r 370 410 u
a 0 u 13 0 25 25 hln 100 VALUE=2k
a 0 sp 0 0 0 10 hlb 100 PART=r
a 0 s 0:13 0 0 0 hln 100 PKGTYPE=RC05
a 0 s 0:13 0 0 0 hln 100 GATE=
a 0 a 0:13 0 0 0 hln 100 PKGREF=R10
a 0 ap 9 0 25 35 hln 100 REFDES=R10
part 115 r 400 360 h
a 0 sp 0 0 0 10 hlb 100 PART=r
a 0 s 0:13 0 0 0 hln 100 PKGTYPE=RC05
a 0 s 0:13 0 0 0 hln 100 GATE=
a 0 x 0:13 0 0 0 hln 100 PKGREF=R11
a 0 xp 9 0 15 0 hln 100 REFDES=R11
part 108 OPAMP 460 320 h
a 0 ap 9 0 19 25 hln 100 REFDES=U2
a 0 s 0:13 0 0 0 hln 100 PKGTYPE=
a 0 a 0:13 0 0 0 hln 100 PKGREF=U2
a 0 sp 11 0 15 40 hln 100 PART=OPAMP
part 2 r 70 430 v
a 0 u 13 0 10 5 hln 100 VALUE=2k
a 0 sp 0 0 0 10 hlb 100 PART=r
a 0 s 0:13 0 0 0 hln 100 PKGTYPE=RC05
a 0 s 0:13 0 0 0 hln 100 GATE=
a 0 a 0:13 0 0 0 hln 100 PKGREF=R1
a 0 ap 9 0 20 5 hln 100 REFDES=R1
part 109 r 530 390 u
a 0 u 13 0 25 25 hln 100 VALUE=4.2k
a 0 sp 0 0 0 10 hlb 100 PART=r
a 0 s 0:13 0 0 0 hln 100 PKGTYPE=RC05
a 0 s 0:13 0 0 0 hln 100 GATE=
a 0 x 0:13 0 0 0 hln 100 PKGREF=R12
a 0 xp 9 0 25 35 hln 100 REFDES=R12
part 17 VDC 240 440 h
a 1 u 13 0 -11 28 hcn 100 DC=0
a 0 x 0:13 0 0 0 hln 100 PKGREF=VC
a 1 xp 9 0 -11 17 hcn 100 REFDES=VC
a 0 sp 0 0 22 37 hln 100 PART=VDC
part 16 VDC 180 440 h
a 0 x 0:13 0 0 0 hln 100 PKGREF=VB
a 1 xp 9 0 -11 17 hcn 100 REFDES=VB
a 0 sp 0 0 22 37 hln 100 PART=VDC
a 1 u 13 0 -11 28 hcn 100 DC=0
part 15 VDC 120 440 h
a 0 x 0:13 0 0 0 hln 100 PKGREF=VA
a 1 xp 9 0 -11 17 hcn 100 REFDES=VA
a 0 sp 0 0 22 37 hln 100 PART=VDC
a 1 u 13 0 -11 28 hcn 100 DC=3
part 1474 nodeMarker 550 340 h
a 0 s 0 0 0 0 hln 100 PROBEVAR=
a 0 s 0 0 0 0 hln 100 PROBEVAR=
a 0 s 0 0 0 0 hln 100 PROBEVAR=
a 0 s 0 0 0 0 hln 100 PROBEVAR=
a 0 s 0 0 0 0 hln 100 PROBEVAR=
a 0 a 0 0 4 22 hlb 100 LABEL=2
@conn
w 471
a 0 up 0:33 0 0 0 hln 100 V=
s 780 650 800 650 472
s 800 650 800 600 470
a 0 up 33 0 802 625 hlt 100 V=
s 800 600 790 600 474
w 507
a 0 up 0:33 0 0 0 hln 100 V=
s 790 120 800 120 510
s 800 160 780 160 508
s 800 120 800 160 506
a 0 up 33 0 802 140 hlt 100 V=
w 501
a 0 up 0:33 0 0 0 hln 100 V=
s 790 200 800 200 504
s 800 200 800 240 502
a 0 up 33 0 802 220 hlt 100 V=
s 800 240 780 240 500
w 495
a 0 up 0:33 0 0 0 hln 100 V=
s 800 280 790 280 498
s 780 320 800 320 496
s 800 320 800 280 494
a 0 up 33 0 802 300 hlt 100 V=
w 489
a 0 up 0:33 0 0 0 hln 100 V=
s 800 360 790 360 492
s 780 400 800 400 490
s 800 400 800 360 488
a 0 up 33 0 802 380 hlt 100 V=
w 483
a 0 up 0:33 0 0 0 hln 100 V=
s 800 440 790 440 486
s 780 480 800 480 484
s 800 480 800 440 482
a 0 up 33 0 802 460 hlt 100 V=
w 477
a 0 up 0:33 0 0 0 hln 100 V=
s 800 520 790 520 480
s 800 560 800 520 478
a 0 up 33 0 802 540 hlt 100 V=
s 780 560 800 560 476
w 1339
a 0 up 0:33 0 0 0 hln 100 V=
s 640 500 710 500 452
a 0 up 33 0 690 499 hct 100 V=
s 640 460 640 500 1348
a 0 up 33 0 672 530 hlt 100 V=
w 1327
a 0 up 0:33 0 0 0 hln 100 V=
s 640 580 710 580 442
a 0 up 33 0 672 585 hlt 100 V=
s 640 580 640 540 1357
w 1289
a 0 up 0:33 0 0 0 hln 100 V=
s 640 420 710 420 376
a 0 up 33 0 700 419 hct 100 V=
s 640 380 640 420 1291
a 0 up 33 0 692 440 hlt 100 V=
w 363
a 0 up 0:33 0 0 0 hln 100 V=
s 640 340 710 340 366
a 0 up 33 0 690 339 hct 100 V=
s 640 300 640 340 1245
a 0 up 33 0 672 350 hlt 100 V=
w 1285
a 0 up 0:33 0 0 0 hln 100 V=
s 640 260 640 220 1397
s 640 260 710 260 356
a 0 up 33 0 700 259 hct 100 V=
w 1282
a 0 up 0:33 0 0 0 hln 100 V=
s 640 180 710 180 460
a 0 up 33 0 675 179 hct 100 V=
s 640 140 640 180 995
w 1001
a 0 up 0:33 0 0 0 hln 100 V=
s 550 170 550 200 1410
a 0 up 33 0 552 185 hlt 100 V=
w 1404
a 0 up 0:33 0 0 0 hln 100 V=
s 710 100 640 100 348
a 0 up 33 0 700 99 hct 100 V=
s 640 100 610 100 1413
w 1416
a 0 up 0:33 0 0 0 hln 100 V=
s 550 130 550 100 1415
a 0 up 33 0 552 115 hlt 100 V=
s 550 100 570 100 1417
w 581
a 0 up 0:33 0 0 0 hln 100 V=
s 70 480 70 430 1436
a 0 up 33 0 72 425 hlt 100 V=
w 28
a 0 up 0:33 0 0 0 hln 100 V=
s 70 390 70 380 27
s 70 380 120 380 871
a 0 up 33 0 95 379 hct 100 V=
s 120 380 130 380 1447
s 120 390 120 380 60
w 52
a 0 up 0:33 0 0 0 hln 100 V=
s 240 440 240 430 51
a 0 up 33 0 242 435 hlt 100 V=
w 54
a 0 up 0:33 0 0 0 hln 100 V=
s 180 440 180 430 53
a 0 up 33 0 182 435 hlt 100 V=
w 32
a 0 up 0:33 0 0 0 hln 100 V=
s 170 380 180 380 874
s 180 380 190 380 1455
s 180 390 180 380 63
a 0 up 33 0 182 385 hlt 100 V=
w 56
a 0 up 0:33 0 0 0 hln 100 V=
s 120 440 120 430 55
a 0 up 33 0 122 435 hlt 100 V=
w 36
a 0 up 0:33 0 0 0 hln 100 V=
s 230 380 240 380 68
s 240 390 240 380 66
a 0 up 33 0 242 385 hlt 100 V=
s 240 380 250 380 239
w 608
a 0 up 0:33 0 0 0 hln 100 V=
s 290 380 300 380 37
s 300 410 330 410 41
a 0 up 33 0 315 409 hct 100 V=
s 300 380 300 410 39
w 898
a 0 up 0:33 0 0 0 hln 100 V=
s 370 410 390 410 43
s 390 360 380 360 905
s 390 410 390 360 45
a 0 up 33 0 392 385 hlt 100 V=
s 400 360 390 360 900
w 834
a 0 up 0:33 0 0 0 hln 100 V=
s 460 360 450 360 923
s 450 360 440 360 1465
s 450 390 450 360 98
a 0 up 33 0 452 360 hlt 100 V=
s 450 390 490 390 100
a 0 up 33 0 470 389 hct 100 V=
w 572
a 0 up 0:33 0 0 0 hln 100 V=
s 700 560 700 620 1048
s 700 540 700 560 1051
s 700 560 740 560 428
s 700 620 710 620 432
s 700 480 700 540 1054
s 700 540 710 540 424
s 700 460 700 480 1057
s 700 480 740 480 420
a 0 up 33 0 720 479 hct 100 V=
s 700 400 700 460 1060
s 700 460 710 460 416
s 700 380 700 400 1063
s 700 400 740 400 412
a 0 up 33 0 720 399 hct 100 V=
s 700 320 700 380 1066
s 700 380 710 380 408
s 700 300 700 320 1069
s 700 320 740 320 404
a 0 up 33 0 720 319 hct 100 V=
s 700 300 700 240 394
s 700 300 710 300 400
s 700 220 700 240 1075
s 700 240 740 240 396
a 0 up 33 0 720 239 hct 100 V=
s 700 160 700 220 1078
s 700 220 710 220 392
s 700 160 740 160 388
a 0 up 33 0 720 159 hct 100 V=
s 700 140 700 160 386
s 700 140 710 140 384
s 700 650 740 650 436
a 0 up 33 0 647 615 hlt 100 V=
s 700 650 700 620 1004
s 570 650 700 650 1312
s 570 340 570 650 1310
s 550 390 530 390 929
s 550 340 540 340 928
s 550 340 550 390 926
s 570 340 550 340 639
@junction
j 780 650
+ p 319 2
+ w 471
j 790 600
+ p 335 OUT
+ w 471
j 790 200
+ p 326 OUT
+ w 501
j 780 240
+ p 324 2
+ w 501
j 790 280
+ p 338 OUT
+ w 495
j 780 320
+ p 323 2
+ w 495
j 790 360
+ p 337 OUT
+ w 489
j 780 400
+ p 322 2
+ w 489
j 790 440
+ p 336 OUT
+ w 483
j 780 480
+ p 321 2
+ w 483
j 790 520
+ p 334 OUT
+ w 477
j 780 560
+ p 320 2
+ w 477
j 710 340
+ p 337 +
+ w 363
j 710 180
+ p 326 +
+ w 1282
j 710 260
+ p 338 +
+ w 1285
j 710 420
+ p 336 +
+ w 1289
j 710 580
+ p 335 +
+ w 1327
j 710 500
+ p 334 +
+ w 1339
j 640 500
+ p 329 2
+ w 1339
j 640 540
+ p 329 1
+ w 1327
j 640 420
+ p 330 2
+ w 1289
j 640 460
+ p 330 1
+ w 1339
j 640 580
+ p 328 2
+ w 1327
j 640 620
+ s 344
+ p 328 1
j 640 340
+ p 331 2
+ w 363
j 640 380
+ p 331 1
+ w 1289
j 640 220
+ p 333 1
+ w 1285
j 640 260
+ p 332 2
+ w 1285
j 640 300
+ p 332 1
+ w 363
j 640 180
+ p 333 2
+ w 1282
j 640 140
+ p 341 1
+ w 1282
j 640 100
+ p 341 2
+ w 1404
j 550 170
+ p 327 -
+ w 1001
j 550 200
+ s 343
+ w 1001
j 550 130
+ p 327 +
+ w 1416
j 610 100
+ p 340 1
+ w 1404
j 570 100
+ p 340 2
+ w 1416
j 710 140
+ p 339 -
+ w 572
j 710 100
+ p 339 +
+ w 1404
j 740 160
+ p 325 1
+ w 572
j 700 160
+ w 572
+ w 572
j 710 220
+ p 326 -
+ w 572
j 700 220
+ w 572
+ w 572
j 740 240
+ p 324 1
+ w 572
j 700 240
+ w 572
+ w 572
j 710 300
+ p 338 -
+ w 572
j 700 300
+ w 572
+ w 572
j 740 320
+ p 323 1
+ w 572
j 700 320
+ w 572
+ w 572
j 710 380
+ p 337 -
+ w 572
j 700 380
+ w 572
+ w 572
j 740 400
+ p 322 1
+ w 572
j 700 400
+ w 572
+ w 572
j 710 460
+ p 336 -
+ w 572
j 700 460
+ w 572
+ w 572
j 740 480
+ p 321 1
+ w 572
j 700 480
+ w 572
+ w 572
j 710 540
+ p 334 -
+ w 572
j 700 540
+ w 572
+ w 572
j 740 560
+ p 320 1
+ w 572
j 700 560
+ w 572
+ w 572
j 710 620
+ p 335 -
+ w 572
j 740 650
+ p 319 1
+ w 572
j 700 620
+ w 572
+ w 572
j 300 340
+ p 12 +
+ s 13
j 460 320
+ p 108 +
+ s 110
j 700 650
+ w 572
+ w 572
j 70 430
+ p 2 1
+ w 581
j 70 480
+ s 14
+ w 581
j 70 390
+ p 2 2
+ w 28
j 130 380
+ p 7 2
+ w 28
j 120 390
+ p 3 2
+ w 28
j 120 380
+ w 28
+ w 28
j 530 390
+ p 109 1
+ w 572
j 540 340
+ p 108 OUT
+ w 572
j 550 340
+ w 572
+ w 572
j 180 430
+ p 4 1
+ w 54
j 170 380
+ p 7 1
+ w 32
j 190 380
+ p 8 2
+ w 32
j 180 390
+ p 4 2
+ w 32
j 180 380
+ w 32
+ w 32
j 120 430
+ p 3 1
+ w 56
j 230 380
+ p 8 1
+ w 36
j 240 390
+ p 5 2
+ w 36
j 250 380
+ p 10 2
+ w 36
j 240 380
+ w 36
+ w 36
j 290 380
+ p 10 1
+ w 608
j 300 380
+ p 12 -
+ w 608
j 330 410
+ p 11 2
+ w 608
j 370 410
+ p 11 1
+ w 898
j 380 360
+ p 12 OUT
+ w 898
j 400 360
+ p 115 1
+ w 898
j 390 360
+ w 898
+ w 898
j 460 360
+ p 108 -
+ w 834
j 440 360
+ p 115 2
+ w 834
j 450 360
+ w 834
+ w 834
j 490 390
+ p 109 2
+ w 834
j 790 120
+ p 339 OUT
+ w 507
j 780 160
+ p 325 2
+ w 507
j 180 480
+ p 16 -
+ s 24
j 180 440
+ p 16 +
+ w 54
j 240 480
+ p 17 -
+ s 25
j 550 340
+ p 1474 pin1
+ w 572
j 240 430
+ p 5 1
+ w 52
j 240 440
+ p 17 +
+ w 52
j 120 480
+ p 15 -
+ s 23
j 120 440
+ p 15 +
+ w 56
@attributes
a 0 s 0:13 0 0 0 hln 100 PAGETITLE=
a 0 s 0:13 0 0 0 hln 100 PAGENO=1
a 0 s 0:13 0 0 0 hln 100 PAGESIZE=A
a 0 s 0:13 0 0 0 hln 100 PAGECOUNT=1
@graphics
t 309 t 6 820 590 840 610 0 2 d_info:,,,,,,,OFF,,,,,,, 
C1
t 310 t 6 820 510 840 530 0 2 d_info:,,,,,,,OFF,,,,,,, 
C2
t 311 t 6 820 430 840 450 0 2 d_info:,,,,,,,OFF,,,,,,, 
C3
t 312 t 6 820 350 840 370 0 2 d_info:,,,,,,,OFF,,,,,,, 
C4
t 313 t 6 820 270 840 290 0 2 d_info:,,,,,,,OFF,,,,,,, 
C5
t 314 t 6 820 190 840 210 0 2 d_info:,,,,,,,OFF,,,,,,, 
C6
t 315 t 6 820 110 840 130 0 2 d_info:,,,,,,,OFF,,,,,,, 
C7
t 316 t 6 550 10 810 60 0 113 d_info:,,,,,ON,192/192/192,,,,,1,,, 
Conversor Analógico/Digital Pararelo (Flash): 8 níveis analógicos

Nível Lógico 0 = -15V
Nível Lógico 1 = +15V
t 72 t 6 110 500 140 520 0 3 d_info:,,,,,,,OFF,,,,,,, 
LSB
t 73 t 6 230 500 260 520 0 3 d_info:,,,,,,,OFF,,,,,,, 
MSB
t 317 t 6 750 710 540 660 0 83 d_info:,,,,,ON,192/192/192,,,,,1,,, 
Entrada das amostras Analógicas: 8 níveis analógicos

Valor das amostras: 0V a 8V
t 318 t 6 900 70 750 90 0 31 d_info:,,,,,ON,192/192/192,,,,,1,,, 
Saída dos Comparadores: C7 a C1
t 965 t 6 240 250 430 310 0 86 d_info:,,,,,ON,192/192/192,,,,,1,,, 
Conversor Digital/Analógico R-2R de 3 bits

Nível Lógico 0 = 0V
Nível Lógico 1 = 3V
